18

C  -0.21618089143258933937 1.29927205516609944880 2.56814956618766521146
C  1.32048703584797744170 1.36357567688237768522 2.46627679201417482346
H  1.56364813833475535532 1.91671020169288297552 1.54143403803562972776
C  1.91776699898145253087 2.16909440350554660881 3.64231775820530634391
O  1.77783255491000646842 0.05509261809373455776 2.45289240058905866348
H  2.74448094064156844496 0.02268610963576711548 2.43442876442752309529
F  -0.73323740799875314345 0.79414629453122154157 1.44891827016895646807
F  -0.73973295698959340427 2.51985040650310132548 2.72395472827781004455
F  -0.63137388802217819794 0.55106338417584388445 3.58017003834064162504
F  1.45223452988317047740 1.80743617669867995268 4.83092199710659109257
F  1.71636494312712994947 3.47866323083653439241 3.50033087245685781141
F  3.24804593545953945721 1.97680618679701636253 3.66228928651383078829
